ac_opf/testcases/nesta_case6_ww__sad.m
%%%%%%%%%%%%%%%%%%%%%%%%%%%%%%%%%%%%%%%%%%%%%%%%%%%%%%%%%%%%%%%%%%%%%%%%%%%
%%%%                                                                  %%%%%
%%%%      NICTA Energy System Test Case Archive (NESTA) - v0.7.0      %%%%%
%%%%           Optimal Power Flow - Small Angle Difference            %%%%%
%%%%                         05 - June - 2017                         %%%%%
%%%%                                                                  %%%%%
%%%%%%%%%%%%%%%%%%%%%%%%%%%%%%%%%%%%%%%%%%%%%%%%%%%%%%%%%%%%%%%%%%%%%%%%%%%
function mpc = nesta_case6_ww__sad
mpc.version = '2';
mpc.baseMVA = 100.0;

%% bus data
%	bus_i	type	Pd	Qd	Gs	Bs	area	Vm	Va	baseKV	zone	Vmax	Vmin
mpc.bus = [
	1	 3	 0.0	 0.0	 0.0	 0.0	 1	    1.05000	   -0.00000	 230.0	 1	    1.05000	    1.05000;
	2	 2	 0.0	 0.0	 0.0	 0.0	 1	    1.05000	   -1.92941	 230.0	 1	    1.05000	    1.05000;
	3	 2	 0.0	 0.0	 0.0	 0.0	 1	    1.07000	   -1.53733	 230.0	 1	    1.07000	    1.07000;
	4	 1	 70.0	 70.0	 0.0	 0.0	 1	    0.98813	   -3.00115	 230.0	 1	    1.05000	    0.95000;
	5	 1	 70.0	 70.0	 0.0	 0.0	 1	    0.98497	   -3.64213	 230.0	 1	    1.05000	    0.95000;
	6	 1	 70.0	 70.0	 0.0	 0.0	 1	    1.00494	   -3.66023	 230.0	 1	    1.05000	    0.95000;
];

%% generator data
%	bus	Pg	Qg	Qmax	Qmin	Vg	mBase	status	Pmax	Pmin	Pc1	Pc2	Qc1min	Qc1max	Qc2min	Qc2max	ramp_agc	ramp_10	ramp_30	ramp_q	apf
mpc.gen = [
	1	 74.631	 26.406	 100.0	 -100.0	 1.05	 100.0	 1	 200.0	 50.0	 0.0	 0.0	 0.0	 0.0	 0.0	 0.0	 0.0	 0.0	 0.0	 0.0	 0.0;
	2	 60.086	 66.83	 100.0	 -100.0	 1.05	 100.0	 1	 150.0	 37.5	 0.0	 0.0	 0.0	 0.0	 0.0	 0.0	 0.0	 0.0	 0.0	 0.0	 0.0;
	3	 82.126	 83.604	 100.0	 -100.0	 1.07	 100.0	 1	 180.0	 45.0	 0.0	 0.0	 0.0	 0.0	 0.0	 0.0	 0.0	 0.0	 0.0	 0.0	 0.0;
];

%% generator cost data
%	2	startup	shutdown	n	c(n-1)	...	c0
mpc.gencost = [
	2	 0.0	 0.0	 3	   0.005330	  11.669000	 213.100000;
	2	 0.0	 0.0	 3	   0.008890	  10.333000	 200.000000;
	2	 0.0	 0.0	 3	   0.007410	  10.833000	 240.000000;
];

%% branch data
%	fbus	tbus	r	x	b	rateA	rateB	rateC	ratio	angle	status	angmin	angmax
mpc.branch = [
	1	 2	 0.1	 0.2	 0.04	 40.0	 40.0	 40.0	 0.0	 0.0	 1	 -3.642128	 3.642128;
	1	 4	 0.05	 0.2	 0.04	 60.0	 60.0	 60.0	 0.0	 0.0	 1	 -3.642128	 3.642128;
	1	 5	 0.08	 0.3	 0.06	 40.0	 40.0	 40.0	 0.0	 0.0	 1	 -3.642128	 3.642128;
	2	 3	 0.05	 0.25	 0.06	 40.0	 40.0	 40.0	 0.0	 0.0	 1	 -3.642128	 3.642128;
	2	 4	 0.05	 0.1	 0.02	 60.0	 60.0	 60.0	 0.0	 0.0	 1	 -3.642128	 3.642128;
	2	 5	 0.1	 0.3	 0.04	 30.0	 30.0	 30.0	 0.0	 0.0	 1	 -3.642128	 3.642128;
	2	 6	 0.07	 0.2	 0.05	 90.0	 90.0	 90.0	 0.0	 0.0	 1	 -3.642128	 3.642128;
	3	 5	 0.12	 0.26	 0.05	 70.0	 70.0	 70.0	 0.0	 0.0	 1	 -3.642128	 3.642128;
	3	 6	 0.02	 0.1	 0.02	 80.0	 80.0	 80.0	 0.0	 0.0	 1	 -3.642128	 3.642128;
	4	 5	 0.2	 0.4	 0.08	 20.0	 20.0	 20.0	 0.0	 0.0	 1	 -3.642128	 3.642128;
	5	 6	 0.1	 0.3	 0.06	 40.0	 40.0	 40.0	 0.0	 0.0	 1	 -3.642128	 3.642128;
];

% INFO    : === Translation Options ===
% INFO    : Phase Angle Bound:           3.642128 (deg.)
% INFO    : AC OPF Solution File:        ./nesta_case6_ww__sad.m.opf.sol
% INFO    : 
% INFO    : === Voltage Setpoint Replacement Notes ===
% INFO    : Bus 1	: V=1.05, theta=0.0 -> V=1.05, theta=-0.0
% INFO    : Bus 2	: V=1.05, theta=-1.98487 -> V=1.05, theta=-1.92941
% INFO    : Bus 3	: V=1.07, theta=-2.23701 -> V=1.07, theta=-1.53733
% INFO    : Bus 4	: V=0.9882, theta=-3.06896 -> V=0.98813, theta=-3.00115
% INFO    : Bus 5	: V=0.98507, theta=-3.91967 -> V=0.98497, theta=-3.64213
% INFO    : Bus 6	: V=1.00462, theta=-4.11822 -> V=1.00494, theta=-3.66023
% INFO    : 
% INFO    : === Generator Setpoint Replacement Notes ===
% INFO    : Gen at bus 1	: Pg=77.22, Qg=25.715 -> Pg=74.631, Qg=26.406
% INFO    : Gen at bus 1	: Vg=1.05 -> Vg=1.05
% INFO    : Gen at bus 2	: Pg=69.268, Qg=64.65 -> Pg=60.086, Qg=66.83
% INFO    : Gen at bus 2	: Vg=1.05 -> Vg=1.05
% INFO    : Gen at bus 3	: Pg=70.421, Qg=86.644 -> Pg=82.126, Qg=83.604
% INFO    : Gen at bus 3	: Vg=1.07 -> Vg=1.07
% INFO    : 
% INFO    : === Writing Matpower Case File Notes ===
